
 ===================================================
  XFOIL Version 6.99
  Copyright (C) 2000   Mark Drela, Harold Youngren

  This software comes with ABSOLUTELY NO WARRANTY,
    subject to the GNU General Public License.

  Caveat computor
 ===================================================

 File  xfoil.def  not found

   QUIT    Exit program

  .OPER    Direct operating point(s)
  .MDES    Complex mapping design routine
  .QDES    Surface speed design routine
  .GDES    Geometry design routine

   SAVE f  Write airfoil to labeled coordinate file
   PSAV f  Write airfoil to plain coordinate file
   ISAV f  Write airfoil to ISES coordinate file
   MSAV f  Write airfoil to MSES coordinate file
   REVE    Reverse written-airfoil node ordering

   LOAD f  Read buffer airfoil from coordinate file
   NACA i  Set NACA 4,5-digit airfoil and buffer airfoil
   INTE    Set buffer airfoil by interpolating two airfoils
   NORM    Buffer airfoil normalization toggle
   XYCM rr Change CM reference location, currently  0.25000 0.00000

   BEND    Display structural properties of current airfoil

   PCOP    Set current-airfoil panel nodes directly from buffer airfoil points
   PANE    Set current-airfoil panel nodes ( 160 ) based on curvature
  .PPAR    Show/change paneling

  .PLOP    Plotting options

   WDEF f  Write  current-settings file
   RDEF f  Reread current-settings file
   NAME s  Specify new airfoil name
   NINC    Increment name version number

   Z       Zoom    | (available in all menus)
   U       Unzoom  | 

 XFOIL   c>  
 Labeled airfoil file.  Name:  xfoil                                           

 Number of input coordinate points: 113
 Counterclockwise ordering
 Max thickness =     0.101208  at x =   0.284
 Max camber    =     0.015779  at x =   0.333

  LE  x,y  =  -0.00000   0.00006  |   Chord =   1.00000
  TE  x,y  =   1.00000   0.00000  |

 Current airfoil nodes set from buffer airfoil nodes ( 113 )

 XFOIL   c>  
 XFOIL   c>  
 XFOIL   c>  
.OPERi   c>  
.OPERi   c>  
.OPERi   c>  
 M  =    0.0000
 Re =    265297

.OPERv   c>  
 Polar  1 newly created for accumulation
 Airfoil archived with polar: xfoil                                           

Enter  polar save filename  OR  <return> for no file   s>  
 Polar save file will NOT be written

Enter  polar dump filename  OR  <return> for no file   s>  
 Polar dump file will NOT be written

 Polar accumulation enabled

.OPERva   c>   Calculating unit vorticity distributions ...
 Calculating wake trajectory ...
 Calculating source influence matrix ...

 Solving BL system ...

 Initializing BL ...
    side            1  ...
 MRCHUE: Inverse mode at  33     Hk =   4.178
 MRCHUE: Inverse mode at  34     Hk =   4.964
 MRCHUE: Inverse mode at  35     Hk =   5.724
 MRCHUE: Inverse mode at  36     Hk =   6.463
 MRCHUE: Inverse mode at  37     Hk =   7.182
 MRCHUE: Inverse mode at  38     Hk =   7.885
 MRCHUE: Inverse mode at  39     Hk =   8.281
 MRCHUE: Inverse mode at  40     Hk =   5.089
 MRCHUE: Inverse mode at  41     Hk =   3.418
    side            2  ...
 MRCHUE: Inverse mode at  53     Hk =   3.800
 MRCHUE: Inverse mode at  54     Hk =   3.914
 MRCHUE: Inverse mode at  55     Hk =   3.998
 MRCHUE: Convergence failed at  56  side 2    Res =  0.1644E+02
 MRCHUE: Inverse mode at  57     Hk =   4.016

 Side 1  free  transition at x/c =  0.7015   39
 Side 2 forced transition at x/c =  1.0000   57

   1   rms: 0.1406E+00   max: -.6763E+00   D at   41  1   RLX: 0.739
       a =  0.000      CL =  0.0904
      Cm = -0.0024     CD =  0.00804   =>   CDf =  0.00509    CDp =  0.00294

 MRCHDU: Convergence failed at  40  side 1    Res =  0.4336E+01
 MRCHDU: Convergence failed at  41  side 1    Res =  0.5248E+01
 MRCHDU: Convergence failed at  42  side 1    Res =  0.2849E+01
 MRCHDU: Convergence failed at  43  side 1    Res =  0.4826E+01
 MRCHDU: Convergence failed at  44  side 1    Res =  0.8037E+01
 MRCHDU: Convergence failed at  45  side 1    Res =  0.1193E+02
 MRCHDU: Convergence failed at  46  side 1    Res =  0.1551E+02
 MRCHDU: Convergence failed at  47  side 1    Res =  0.1793E+02
 MRCHDU: Convergence failed at  48  side 1    Res =  0.1919E+02
 MRCHDU: Convergence failed at  49  side 1    Res =  0.1989E+02
 MRCHDU: Convergence failed at  50  side 1    Res =  0.2021E+02
 MRCHDU: Convergence failed at  51  side 1    Res =  0.2064E+02
 MRCHDU: Convergence failed at  52  side 1    Res =  0.2146E+02
 MRCHDU: Convergence failed at  53  side 1    Res =  0.2334E+02
 MRCHDU: Convergence failed at  54  side 1    Res =  0.2758E+02
 MRCHDU: Convergence failed at  55  side 1    Res =  0.3531E+02
 MRCHDU: Convergence failed at  56  side 1    Res =  0.4797E+02
 MRCHDU: Convergence failed at  57  side 1    Res =  0.5677E+02
 MRCHDU: Convergence failed at  58  side 1    Res =  0.3633E+02
 Side 1  free  transition at x/c =  0.7161   40
 Side 2 forced transition at x/c =  1.0000   57

   2   rms: 0.2784E+00   max: 0.9851E+00   T at   46  1   RLX: 0.761
       a =  0.000      CL =  0.1752
      Cm = -0.0292     CD =  0.00707   =>   CDf =  0.00429    CDp =  0.00278

 Side 1  free  transition at x/c =  0.7013   39
 Side 2 forced transition at x/c =  1.0000   57

   3   rms: 0.6256E-01   max: -.3930E+00   D at   40  1
       a =  0.000      CL =  0.1150
      Cm = -0.0073     CD =  0.00838   =>   CDf =  0.00547    CDp =  0.00292

 Side 1  free  transition at x/c =  0.7143   40
 Side 2 forced transition at x/c =  1.0000   57

   4   rms: 0.2251E-01   max: 0.2786E+00   D at   40  1
       a =  0.000      CL =  0.1171
      Cm = -0.0079     CD =  0.00818   =>   CDf =  0.00505    CDp =  0.00313

 Side 1  free  transition at x/c =  0.7105   40
 Side 2 forced transition at x/c =  1.0000   57

   5   rms: 0.2681E-02   max: -.2330E-01   D at   42  1
       a =  0.000      CL =  0.1174
      Cm = -0.0080     CD =  0.00820   =>   CDf =  0.00508    CDp =  0.00312

 Side 1  free  transition at x/c =  0.7095   40
 Side 2 forced transition at x/c =  1.0000   57

   6   rms: 0.7411E-04   max: -.1052E-02   D at   42  1
       a =  0.000      CL =  0.1174
      Cm = -0.0080     CD =  0.00820   =>   CDf =  0.00510    CDp =  0.00311
 plradd ia,ip,cpol            1          57  0.17614999    

 Point added to stored polar  1
 Save file unspecified or not available
 Dump file unspecified or not available

.OPERva   c>  
.OPERva   c>  
.OPERva   c>   Calculating wake trajectory ...
 Calculating source influence matrix ...

 Solving BL system ...

 Side 1  free  transition at x/c =  0.7095   40
 Side 2 forced transition at x/c =  1.0000   57

   1   rms: 0.1446E-01   max: -.8392E-01   D at    4  2
       a =  0.080      CL =  0.1257
      Cm = -0.0079     CD =  0.00821   =>   CDf =  0.00510    CDp =  0.00311

 Side 1  free  transition at x/c =  0.7069   40
 Side 2 forced transition at x/c =  1.0000   57

   2   rms: 0.3267E-03   max: -.3210E-02   D at   40  1
       a =  0.080      CL =  0.1256
      Cm = -0.0079     CD =  0.00821   =>   CDf =  0.00514    CDp =  0.00307

 Side 1  free  transition at x/c =  0.7069   40
 Side 2 forced transition at x/c =  1.0000   57

   3   rms: 0.9985E-06   max: 0.8643E-05   D at   40  1
       a =  0.080      CL =  0.1256
      Cm = -0.0079     CD =  0.00821   =>   CDf =  0.00514    CDp =  0.00307
 plradd ia,ip,cpol            2          57  0.15700001    

 Point added to stored polar  1
 Save file unspecified or not available
 Dump file unspecified or not available

.OPERva   c>  
.OPERva   c>  
.OPERva   c>   Calculating wake trajectory ...
 Calculating source influence matrix ...

 Solving BL system ...

 Side 1  free  transition at x/c =  0.7069   40
 Side 2 forced transition at x/c =  1.0000   57

   1   rms: 0.1470E-01   max: -.4884E-01   D at    5  2
       a =  0.160      CL =  0.1336
      Cm = -0.0077     CD =  0.00822   =>   CDf =  0.00514    CDp =  0.00308

 Side 1  free  transition at x/c =  0.7041   40
 Side 2 forced transition at x/c =  1.0000   57

   2   rms: 0.3201E-03   max: -.3051E-02   D at   40  1
       a =  0.160      CL =  0.1336
      Cm = -0.0077     CD =  0.00822   =>   CDf =  0.00519    CDp =  0.00303

 Side 1  free  transition at x/c =  0.7041   40
 Side 2 forced transition at x/c =  1.0000   57

   3   rms: 0.1876E-05   max: -.1608E-04   D at   59  2
       a =  0.160      CL =  0.1336
      Cm = -0.0077     CD =  0.00822   =>   CDf =  0.00519    CDp =  0.00303
 plradd ia,ip,cpol            3          57  0.13880999    

 Point added to stored polar  1
 Save file unspecified or not available
 Dump file unspecified or not available

.OPERva   c>  
.OPERva   c>  
.OPERva   c>   Calculating wake trajectory ...
 Calculating source influence matrix ...

 Solving BL system ...

 Side 1  free  transition at x/c =  0.7041   40
 Side 2 forced transition at x/c =  1.0000   57

   1   rms: 0.1348E-01   max: -.3434E-01   D at    8  2
       a =  0.240      CL =  0.1417
      Cm = -0.0075     CD =  0.00826   =>   CDf =  0.00519    CDp =  0.00306

 Side 1  free  transition at x/c =  0.7017   39
 Side 2 forced transition at x/c =  1.0000   57

   2   rms: 0.2049E-02   max: -.2533E-01   C at   39  1
       a =  0.240      CL =  0.1422
      Cm = -0.0076     CD =  0.00823   =>   CDf =  0.00523    CDp =  0.00300

 Side 1  free  transition at x/c =  0.7012   39
 Side 2 forced transition at x/c =  1.0000   57

   3   rms: 0.6859E-04   max: 0.6411E-03   D at   40  1
       a =  0.240      CL =  0.1422
      Cm = -0.0076     CD =  0.00823   =>   CDf =  0.00522    CDp =  0.00301
 plradd ia,ip,cpol            4          57  0.13880999    

 Point added to stored polar  1
 Save file unspecified or not available
 Dump file unspecified or not available

.OPERva   c>  
.OPERva   c>  
.OPERva   c>   Calculating wake trajectory ...
 Calculating source influence matrix ...

 Solving BL system ...

 Side 1  free  transition at x/c =  0.7011   39
 Side 2 forced transition at x/c =  1.0000   57

   1   rms: 0.1447E-01   max: -.2441E-01   n at   56  2
       a =  0.320      CL =  0.1510
      Cm = -0.0076     CD =  0.00823   =>   CDf =  0.00522    CDp =  0.00301

 Side 1  free  transition at x/c =  0.6974   39
 Side 2 forced transition at x/c =  1.0000   57

   2   rms: 0.1370E-02   max: -.1074E-01   D at   39  1
       a =  0.320      CL =  0.1509
      Cm = -0.0076     CD =  0.00822   =>   CDf =  0.00522    CDp =  0.00300

 Side 1  free  transition at x/c =  0.6978   39
 Side 2 forced transition at x/c =  1.0000   57

   3   rms: 0.7334E-05   max: 0.5273E-04   D at   40  1
       a =  0.320      CL =  0.1509
      Cm = -0.0076     CD =  0.00822   =>   CDf =  0.00522    CDp =  0.00300
 plradd ia,ip,cpol            5          57  0.13880999    

 Point added to stored polar  1
 Save file unspecified or not available
 Dump file unspecified or not available

.OPERva   c>  
.OPERva   c>  
.OPERva   c>   Calculating wake trajectory ...
 Calculating source influence matrix ...

 Solving BL system ...

 Side 1  free  transition at x/c =  0.6978   39
 Side 2 forced transition at x/c =  1.0000   57

   1   rms: 0.1391E-01   max: -.4926E-01   D at    6  2
       a =  0.400      CL =  0.1596
      Cm = -0.0076     CD =  0.00821   =>   CDf =  0.00522    CDp =  0.00299

 Side 1  free  transition at x/c =  0.6938   39
 Side 2 forced transition at x/c =  1.0000   57

   2   rms: 0.4498E-03   max: -.3953E-02   D at   40  1
       a =  0.400      CL =  0.1595
      Cm = -0.0076     CD =  0.00821   =>   CDf =  0.00523    CDp =  0.00298

 Side 1  free  transition at x/c =  0.6940   39
 Side 2 forced transition at x/c =  1.0000   57

   3   rms: 0.1765E-05   max: -.8886E-05   D at   59  2
       a =  0.400      CL =  0.1595
      Cm = -0.0076     CD =  0.00821   =>   CDf =  0.00523    CDp =  0.00298
 plradd ia,ip,cpol            6          57  0.15700001    

 Point added to stored polar  1
 Save file unspecified or not available
 Dump file unspecified or not available

.OPERva   c>  
.OPERva   c>  
.OPERva   c>   Calculating wake trajectory ...
 Calculating source influence matrix ...

 Solving BL system ...

 Side 1  free  transition at x/c =  0.6940   39
 Side 2 forced transition at x/c =  1.0000   57

   1   rms: 0.1388E-01   max: -.2676E-01   n at   56  2
       a =  0.480      CL =  0.1680
      Cm = -0.0075     CD =  0.00821   =>   CDf =  0.00523    CDp =  0.00298

 Side 1  free  transition at x/c =  0.6897   39
 Side 2 forced transition at x/c =  1.0000   57

   2   rms: 0.1703E-02   max: -.1716E-01   D at   39  1
       a =  0.480      CL =  0.1679
      Cm = -0.0074     CD =  0.00820   =>   CDf =  0.00526    CDp =  0.00294

 Side 1  free  transition at x/c =  0.6902   39
 Side 2 forced transition at x/c =  1.0000   57

   3   rms: 0.1356E-04   max: -.1732E-03   D at   41  1
       a =  0.480      CL =  0.1679
      Cm = -0.0074     CD =  0.00820   =>   CDf =  0.00526    CDp =  0.00295
 plradd ia,ip,cpol            7          57  0.13880999    

 Point added to stored polar  1
 Save file unspecified or not available
 Dump file unspecified or not available

.OPERva   c>  
.OPERva   c>  
.OPERva   c>   Calculating wake trajectory ...
 Calculating source influence matrix ...

 Solving BL system ...

 Side 1  free  transition at x/c =  0.6902   39
 Side 2 forced transition at x/c =  1.0000   57

   1   rms: 0.1321E-01   max: -.1870E-01   n at   56  2
       a =  0.560      CL =  0.1764
      Cm = -0.0073     CD =  0.00820   =>   CDf =  0.00526    CDp =  0.00294

 Side 1  free  transition at x/c =  0.6865   39
 Side 2 forced transition at x/c =  1.0000   57

   2   rms: 0.3052E-03   max: -.3414E-02   D at   39  1
       a =  0.560      CL =  0.1763
      Cm = -0.0073     CD =  0.00819   =>   CDf =  0.00529    CDp =  0.00291

 Side 1  free  transition at x/c =  0.6865   39
 Side 2 forced transition at x/c =  1.0000   57

   3   rms: 0.1289E-05   max: -.6904E-05   D at   59  2
       a =  0.560      CL =  0.1763
      Cm = -0.0073     CD =  0.00819   =>   CDf =  0.00528    CDp =  0.00291
 plradd ia,ip,cpol            8          57  0.13880999    

 Point added to stored polar  1
 Save file unspecified or not available
 Dump file unspecified or not available

.OPERva   c>  
.OPERva   c>  
.OPERva   c>   Calculating wake trajectory ...
 Calculating source influence matrix ...

 Solving BL system ...

 Side 1  free  transition at x/c =  0.6865   39
 Side 2 forced transition at x/c =  1.0000   57

   1   rms: 0.1454E-01   max: -.2623E-01   n at   56  2
       a =  0.640      CL =  0.1846
      Cm = -0.0072     CD =  0.00819   =>   CDf =  0.00528    CDp =  0.00291

 Side 1  free  transition at x/c =  0.6828   39
 Side 2 forced transition at x/c =  1.0000   57

   2   rms: 0.8527E-03   max: -.9452E-02   D at   39  1
       a =  0.640      CL =  0.1845
      Cm = -0.0071     CD =  0.00819   =>   CDf =  0.00532    CDp =  0.00287

 Side 1  free  transition at x/c =  0.6830   39
 Side 2 forced transition at x/c =  1.0000   57

   3   rms: 0.4106E-05   max: -.4713E-04   D at   41  1
       a =  0.640      CL =  0.1845
      Cm = -0.0071     CD =  0.00819   =>   CDf =  0.00532    CDp =  0.00287
 plradd ia,ip,cpol            9          57  0.13880999    

 Point added to stored polar  1
 Save file unspecified or not available
 Dump file unspecified or not available

.OPERva   c>  
.OPERva   c>  
.OPERva   c>   Calculating wake trajectory ...
 Calculating source influence matrix ...

 Solving BL system ...

 Side 1  free  transition at x/c =  0.6830   39
 Side 2 forced transition at x/c =  1.0000   57

   1   rms: 0.1324E-01   max: -.2039E-01   n at   56  2
       a =  0.720      CL =  0.1928
      Cm = -0.0070     CD =  0.00820   =>   CDf =  0.00532    CDp =  0.00288

 Side 1  free  transition at x/c =  0.6796   39
 Side 2 forced transition at x/c =  1.0000   57

   2   rms: 0.1490E-02   max: -.1708E-01   D at   39  1
       a =  0.720      CL =  0.1927
      Cm = -0.0069     CD =  0.00820   =>   CDf =  0.00537    CDp =  0.00283

 Side 1  free  transition at x/c =  0.6799   39
 Side 2 forced transition at x/c =  1.0000   57

   3   rms: 0.9317E-05   max: -.1137E-03   D at   40  1
       a =  0.720      CL =  0.1927
      Cm = -0.0069     CD =  0.00820   =>   CDf =  0.00537    CDp =  0.00284
 plradd ia,ip,cpol           10          57  0.13880999    

 Point added to stored polar  1
 Save file unspecified or not available
 Dump file unspecified or not available

.OPERva   c>  
.OPERva   c>  
.OPERva   c>   Calculating wake trajectory ...
 Calculating source influence matrix ...

 Solving BL system ...

 Side 1  free  transition at x/c =  0.6799   39
 Side 2 forced transition at x/c =  1.0000   57

   1   rms: 0.1374E-01   max: -.2208E-01   n at   56  2
       a =  0.800      CL =  0.2008
      Cm = -0.0067     CD =  0.00823   =>   CDf =  0.00537    CDp =  0.00286

 Side 1  free  transition at x/c =  0.6767   38
 Side 2 forced transition at x/c =  1.0000   57

   2   rms: 0.3535E-03   max: -.3492E-02   C at   38  1
       a =  0.800      CL =  0.2008
      Cm = -0.0067     CD =  0.00823   =>   CDf =  0.00542    CDp =  0.00281

 Side 1  free  transition at x/c =  0.6766   38
 Side 2 forced transition at x/c =  1.0000   57

   3   rms: 0.1535E-05   max: -.1448E-04   D at   39  1
       a =  0.800      CL =  0.2008
      Cm = -0.0067     CD =  0.00823   =>   CDf =  0.00542    CDp =  0.00281
 plradd ia,ip,cpol           11          57  0.13880999    

 Point added to stored polar  1
 Save file unspecified or not available
 Dump file unspecified or not available

.OPERva   c>  
.OPERva   c>  
.OPERva   c>   Calculating wake trajectory ...
 Calculating source influence matrix ...

 Solving BL system ...

 Side 1  free  transition at x/c =  0.6766   38
 Side 2 forced transition at x/c =  1.0000   57

   1   rms: 0.1424E-01   max: -.1823E-01   n at   56  2
       a =  0.880      CL =  0.2098
      Cm = -0.0068     CD =  0.00821   =>   CDf =  0.00542    CDp =  0.00279

 Side 1  free  transition at x/c =  0.6722   38
 Side 2 forced transition at x/c =  1.0000   57

   2   rms: 0.5957E-03   max: -.7801E-02   D at   39  1
       a =  0.880      CL =  0.2097
      Cm = -0.0067     CD =  0.00822   =>   CDf =  0.00541    CDp =  0.00281

 Side 1  free  transition at x/c =  0.6724   38
 Side 2 forced transition at x/c =  1.0000   57

   3   rms: 0.1653E-05   max: -.8560E-05   D at   61  2
       a =  0.880      CL =  0.2097
      Cm = -0.0067     CD =  0.00822   =>   CDf =  0.00541    CDp =  0.00281
 plradd ia,ip,cpol           12          57  0.13880999    

 Point added to stored polar  1
 Save file unspecified or not available
 Dump file unspecified or not available

.OPERva   c>  
.OPERva   c>  
.OPERva   c>   Calculating wake trajectory ...
 Calculating source influence matrix ...

 Solving BL system ...

 Side 1  free  transition at x/c =  0.6724   38
 Side 2 forced transition at x/c =  1.0000   57

   1   rms: 0.1423E-01   max: -.1838E-01   n at   56  2
       a =  0.960      CL =  0.2185
      Cm = -0.0067     CD =  0.00822   =>   CDf =  0.00541    CDp =  0.00281

 Side 1  free  transition at x/c =  0.6684   38
 Side 2 forced transition at x/c =  1.0000   57

   2   rms: 0.5110E-03   max: -.3879E-02   D at   39  1
       a =  0.960      CL =  0.2184
      Cm = -0.0067     CD =  0.00821   =>   CDf =  0.00541    CDp =  0.00280

 Side 1  free  transition at x/c =  0.6686   38
 Side 2 forced transition at x/c =  1.0000   57

   3   rms: 0.2233E-05   max: -.1270E-04   D at   40  1
       a =  0.960      CL =  0.2184
      Cm = -0.0067     CD =  0.00821   =>   CDf =  0.00541    CDp =  0.00280
 plradd ia,ip,cpol           13          57  0.10544000    

 Point added to stored polar  1
 Save file unspecified or not available
 Dump file unspecified or not available

.OPERva   c>  
.OPERva   c>  
.OPERva   c>   Calculating wake trajectory ...
 Calculating source influence matrix ...

 Solving BL system ...

 Side 1  free  transition at x/c =  0.6686   38
 Side 2 forced transition at x/c =  1.0000   57

   1   rms: 0.1398E-01   max: -.2704E-01   D at   13  2
       a =  1.040      CL =  0.2270
      Cm = -0.0066     CD =  0.00821   =>   CDf =  0.00551    CDp =  0.00270

 Side 1  free  transition at x/c =  0.6642   39
 Side 2 forced transition at x/c =  1.0000   56

   2   rms: 0.1116E-01   max: -.1633E+00   D at    2  1
       a =  1.040      CL =  0.2270
      Cm = -0.0066     CD =  0.00821   =>   CDf =  0.00542    CDp =  0.00279

 Side 1  free  transition at x/c =  0.6644   39
 Side 2 forced transition at x/c =  1.0000   56

   3   rms: 0.2757E-03   max: 0.2409E-02   D at    6  1
       a =  1.040      CL =  0.2270
      Cm = -0.0066     CD =  0.00821   =>   CDf =  0.00542    CDp =  0.00279

 Side 1  free  transition at x/c =  0.6644   39
 Side 2 forced transition at x/c =  1.0000   56

   4   rms: 0.3341E-05   max: 0.2974E-04   D at    5  1
       a =  1.040      CL =  0.2270
      Cm = -0.0066     CD =  0.00821   =>   CDf =  0.00542    CDp =  0.00279
 plradd ia,ip,cpol           14          58  0.10544000    

 Point added to stored polar  1
 Save file unspecified or not available
 Dump file unspecified or not available

.OPERva   c>  
.OPERva   c>  
.OPERva   c>   Calculating wake trajectory ...
 Calculating source influence matrix ...

 Solving BL system ...

 Side 1  free  transition at x/c =  0.6644   39
 Side 2 forced transition at x/c =  1.0000   56

   1   rms: 0.1377E-01   max: -.1877E-01   n at   55  2
       a =  1.120      CL =  0.2356
      Cm = -0.0065     CD =  0.00821   =>   CDf =  0.00542    CDp =  0.00280

 Side 1  free  transition at x/c =  0.6608   39
 Side 2 forced transition at x/c =  1.0000   56

   2   rms: 0.6250E-03   max: -.5180E-02   D at    6  1
       a =  1.120      CL =  0.2355
      Cm = -0.0065     CD =  0.00821   =>   CDf =  0.00544    CDp =  0.00277

 Side 1  free  transition at x/c =  0.6608   39
 Side 2 forced transition at x/c =  1.0000   56

   3   rms: 0.4424E-05   max: -.3691E-04   D at    5  1
       a =  1.120      CL =  0.2355
      Cm = -0.0065     CD =  0.00821   =>   CDf =  0.00544    CDp =  0.00277
 plradd ia,ip,cpol           15          58  0.10544000    

 Point added to stored polar  1
 Save file unspecified or not available
 Dump file unspecified or not available

.OPERva   c>  
.OPERva   c>  
.OPERva   c>   Calculating wake trajectory ...
 Calculating source influence matrix ...

 Solving BL system ...

 Side 1  free  transition at x/c =  0.6608   39
 Side 2 forced transition at x/c =  1.0000   56

   1   rms: 0.1310E-01   max: -.1609E-01   n at   55  2
       a =  1.200      CL =  0.2440
      Cm = -0.0064     CD =  0.00822   =>   CDf =  0.00544    CDp =  0.00278

 Side 1  free  transition at x/c =  0.6570   39
 Side 2 forced transition at x/c =  1.0000   56

   2   rms: 0.5270E-03   max: -.5419E-02   D at   39  1
       a =  1.200      CL =  0.2439
      Cm = -0.0064     CD =  0.00822   =>   CDf =  0.00548    CDp =  0.00274

 Side 1  free  transition at x/c =  0.6571   39
 Side 2 forced transition at x/c =  1.0000   56

   3   rms: 0.2701E-05   max: -.2679E-04   D at   41  1
       a =  1.200      CL =  0.2439
      Cm = -0.0064     CD =  0.00822   =>   CDf =  0.00548    CDp =  0.00274
 plradd ia,ip,cpol           16          58  0.10544000    

 Point added to stored polar  1
 Save file unspecified or not available
 Dump file unspecified or not available

.OPERva   c>  
.OPERva   c>  
.OPERva   c>   Calculating wake trajectory ...
 Calculating source influence matrix ...

 Solving BL system ...

 Side 1  free  transition at x/c =  0.6571   39
 Side 2 forced transition at x/c =  1.0000   56

   1   rms: 0.1405E-01   max: -.1946E-01   n at   55  2
       a =  1.280      CL =  0.2523
      Cm = -0.0062     CD =  0.00823   =>   CDf =  0.00548    CDp =  0.00276

 Side 1  free  transition at x/c =  0.6535   39
 Side 2 forced transition at x/c =  1.0000   56

   2   rms: 0.8940E-03   max: -.1027E-01   D at   39  1
       a =  1.280      CL =  0.2522
      Cm = -0.0062     CD =  0.00823   =>   CDf =  0.00552    CDp =  0.00271

 Side 1  free  transition at x/c =  0.6538   39
 Side 2 forced transition at x/c =  1.0000   56

   3   rms: 0.4597E-05   max: -.4363E-04   D at   40  1
       a =  1.280      CL =  0.2522
      Cm = -0.0062     CD =  0.00823   =>   CDf =  0.00552    CDp =  0.00272
 plradd ia,ip,cpol           17          58  0.10544000    

 Point added to stored polar  1
 Save file unspecified or not available
 Dump file unspecified or not available

.OPERva   c>  
.OPERva   c>  
.OPERva   c>   Calculating wake trajectory ...
 Calculating source influence matrix ...

 Solving BL system ...

 Side 1  free  transition at x/c =  0.6538   39
 Side 2 forced transition at x/c =  1.0000   56

   1   rms: 0.1366E-01   max: -.1821E-01   n at   55  2
       a =  1.360      CL =  0.2604
      Cm = -0.0060     CD =  0.00826   =>   CDf =  0.00552    CDp =  0.00274

 Side 1  free  transition at x/c =  0.6506   39
 Side 2 forced transition at x/c =  1.0000   56

   2   rms: 0.6754E-03   max: -.7209E-02   D at   40  1
       a =  1.360      CL =  0.2604
      Cm = -0.0060     CD =  0.00827   =>   CDf =  0.00557    CDp =  0.00270

 Side 1  free  transition at x/c =  0.6504   38
 Side 2 forced transition at x/c =  1.0000   56

   3   rms: 0.1733E-03   max: -.2415E-02   C at   38  1
       a =  1.360      CL =  0.2604
      Cm = -0.0060     CD =  0.00827   =>   CDf =  0.00557    CDp =  0.00269

 Side 1  free  transition at x/c =  0.6504   38
 Side 2 forced transition at x/c =  1.0000   56

   4   rms: 0.1033E-05   max: 0.8488E-05   C at   38  1
       a =  1.360      CL =  0.2604
      Cm = -0.0060     CD =  0.00827   =>   CDf =  0.00557    CDp =  0.00270
 plradd ia,ip,cpol           18          58  0.10544000    

 Point added to stored polar  1
 Save file unspecified or not available
 Dump file unspecified or not available

.OPERva   c>  
.OPERva   c>  
.OPERva   c>   Calculating wake trajectory ...
 Calculating source influence matrix ...

 Solving BL system ...

 Side 1  free  transition at x/c =  0.6504   38
 Side 2 forced transition at x/c =  1.0000   56

   1   rms: 0.1336E-01   max: -.1396E-01   n at   55  2
       a =  1.440      CL =  0.2694
      Cm = -0.0060     CD =  0.00826   =>   CDf =  0.00557    CDp =  0.00269

 Side 1  free  transition at x/c =  0.6463   38
 Side 2 forced transition at x/c =  1.0000   56

   2   rms: 0.5257E-03   max: -.6037E-02   D at   39  1
       a =  1.440      CL =  0.2693
      Cm = -0.0060     CD =  0.00826   =>   CDf =  0.00556    CDp =  0.00271

 Side 1  free  transition at x/c =  0.6464   38
 Side 2 forced transition at x/c =  1.0000   56

   3   rms: 0.2195E-05   max: -.9343E-05   D at   49  1
       a =  1.440      CL =  0.2693
      Cm = -0.0060     CD =  0.00826   =>   CDf =  0.00556    CDp =  0.00271
 plradd ia,ip,cpol           19          58  0.10544000    

 Point added to stored polar  1
 Save file unspecified or not available
 Dump file unspecified or not available

.OPERva   c>  
.OPERva   c>  
.OPERva   c>   Calculating wake trajectory ...
 Calculating source influence matrix ...

 Solving BL system ...

 Side 1  free  transition at x/c =  0.6464   38
 Side 2 forced transition at x/c =  1.0000   56

   1   rms: 0.1350E-01   max: -.2499E-01   D at   10  2
       a =  1.520      CL =  0.2782
      Cm = -0.0060     CD =  0.00827   =>   CDf =  0.00556    CDp =  0.00271

 Side 1  free  transition at x/c =  0.6417   38
 Side 2 forced transition at x/c =  1.0000   56

   2   rms: 0.1160E-02   max: -.1060E-01   D at   38  1
       a =  1.520      CL =  0.2781
      Cm = -0.0060     CD =  0.00826   =>   CDf =  0.00556    CDp =  0.00270

 Side 1  free  transition at x/c =  0.6421   38
 Side 2 forced transition at x/c =  1.0000   56

   3   rms: 0.6824E-05   max: -.9087E-04   D at   40  1
       a =  1.520      CL =  0.2781
      Cm = -0.0060     CD =  0.00826   =>   CDf =  0.00556    CDp =  0.00271
 plradd ia,ip,cpol           20          58  0.10544000    

 Point added to stored polar  1
 Save file unspecified or not available
 Dump file unspecified or not available

.OPERva   c>  
.OPERva   c>  
.OPERva   c>   Calculating wake trajectory ...
 Calculating source influence matrix ...

 Solving BL system ...

 Side 1  free  transition at x/c =  0.6421   38
 Side 2 forced transition at x/c =  1.0000   56

   1   rms: 0.1273E-01   max: -.1682E-01   D at   16  2
       a =  1.600      CL =  0.2867
      Cm = -0.0059     CD =  0.00826   =>   CDf =  0.00556    CDp =  0.00271

 Side 1  free  transition at x/c =  0.6367   38
 Side 2 forced transition at x/c =  1.0000   56

   2   rms: 0.1503E-02   max: -.1524E-01   D at   38  1
       a =  1.600      CL =  0.2867
      Cm = -0.0059     CD =  0.00826   =>   CDf =  0.00558    CDp =  0.00268

 Side 1  free  transition at x/c =  0.6373   38
 Side 2 forced transition at x/c =  1.0000   56

   3   rms: 0.1531E-04   max: -.1944E-03   D at   40  1
       a =  1.600      CL =  0.2867
      Cm = -0.0059     CD =  0.00826   =>   CDf =  0.00557    CDp =  0.00269
 plradd ia,ip,cpol           21          58  0.10544000    

 Point added to stored polar  1
 Save file unspecified or not available
 Dump file unspecified or not available

.OPERva   c>  
.OPERva   c>  
.OPERva   c>   Calculating wake trajectory ...
 Calculating source influence matrix ...

 Solving BL system ...

 Side 1  free  transition at x/c =  0.6372   38
 Side 2 forced transition at x/c =  1.0000   56

   1   rms: 0.1326E-01   max: -.1697E-01   n at   55  2
       a =  1.680      CL =  0.2953
      Cm = -0.0058     CD =  0.00827   =>   CDf =  0.00557    CDp =  0.00270

 Side 1  free  transition at x/c =  0.6334   38
 Side 2 forced transition at x/c =  1.0000   56

   2   rms: 0.5910E-03   max: -.5945E-02   D at   38  1
       a =  1.680      CL =  0.2952
      Cm = -0.0058     CD =  0.00827   =>   CDf =  0.00560    CDp =  0.00268

 Side 1  free  transition at x/c =  0.6336   38
 Side 2 forced transition at x/c =  1.0000   56

   3   rms: 0.2590E-05   max: -.3432E-04   D at   40  1
       a =  1.680      CL =  0.2952
      Cm = -0.0058     CD =  0.00827   =>   CDf =  0.00559    CDp =  0.00268
 plradd ia,ip,cpol           22          58  0.10544000    

 Point added to stored polar  1
 Save file unspecified or not available
 Dump file unspecified or not available

.OPERva   c>  
.OPERva   c>  
.OPERva   c>   Calculating wake trajectory ...
 Calculating source influence matrix ...

 Solving BL system ...

 Side 1  free  transition at x/c =  0.6336   38
 Side 2 forced transition at x/c =  1.0000   56

   1   rms: 0.1349E-01   max: -.1347E-01   n at   55  2
       a =  1.760      CL =  0.3036
      Cm = -0.0056     CD =  0.00828   =>   CDf =  0.00559    CDp =  0.00269

 Side 1  free  transition at x/c =  0.6291   38
 Side 2 forced transition at x/c =  1.0000   56

   2   rms: 0.9259E-03   max: -.1037E-01   D at   38  1
       a =  1.760      CL =  0.3036
      Cm = -0.0056     CD =  0.00829   =>   CDf =  0.00564    CDp =  0.00265

 Side 1  free  transition at x/c =  0.6294   38
 Side 2 forced transition at x/c =  1.0000   56

   3   rms: 0.6032E-05   max: -.7374E-04   D at   39  1
       a =  1.760      CL =  0.3036
      Cm = -0.0056     CD =  0.00829   =>   CDf =  0.00563    CDp =  0.00266
 plradd ia,ip,cpol           23          58  9.03600007E-02

 Point added to stored polar  1
 Save file unspecified or not available
 Dump file unspecified or not available

.OPERva   c>  
.OPERva   c>  
.OPERva   c>   Calculating wake trajectory ...
 Calculating source influence matrix ...

 Solving BL system ...

 Side 1  free  transition at x/c =  0.6294   38
 Side 2 forced transition at x/c =  1.0000   56

   1   rms: 0.1419E-01   max: -.1483E-01   D at   16  2
       a =  1.840      CL =  0.3119
      Cm = -0.0054     CD =  0.00831   =>   CDf =  0.00563    CDp =  0.00267

 Side 1  free  transition at x/c =  0.6252   38
 Side 2 forced transition at x/c =  1.0000   56

   2   rms: 0.3441E-03   max: -.3921E-02   D at   38  1
       a =  1.840      CL =  0.3119
      Cm = -0.0054     CD =  0.00831   =>   CDf =  0.00569    CDp =  0.00263

 Side 1  free  transition at x/c =  0.6252   38
 Side 2 forced transition at x/c =  1.0000   56

   3   rms: 0.1489E-05   max: -.7185E-05   D at   48  1
       a =  1.840      CL =  0.3119
      Cm = -0.0054     CD =  0.00831   =>   CDf =  0.00569    CDp =  0.00263
 plradd ia,ip,cpol           24          58  9.03600007E-02

 Point added to stored polar  1
 Save file unspecified or not available
 Dump file unspecified or not available

.OPERva   c>  
.OPERva   c>  
.OPERva   c>   Calculating wake trajectory ...
 Calculating source influence matrix ...

 Solving BL system ...

 Side 1  free  transition at x/c =  0.6252   38
 Side 2 forced transition at x/c =  1.0000   56

   1   rms: 0.1613E-01   max: -.5323E-01   D at    4  2
       a =  1.920      CL =  0.3202
      Cm = -0.0053     CD =  0.00836   =>   CDf =  0.00569    CDp =  0.00267

 Side 1  free  transition at x/c =  0.6217   37
 Side 2 forced transition at x/c =  1.0000   56

   2   rms: 0.2429E-02   max: -.3420E-01   C at   37  1
       a =  1.920      CL =  0.3206
      Cm = -0.0054     CD =  0.00833   =>   CDf =  0.00571    CDp =  0.00262

 Side 1  free  transition at x/c =  0.6211   37
 Side 2 forced transition at x/c =  1.0000   56

   3   rms: 0.3663E-04   max: 0.3208E-03   C at   37  1
       a =  1.920      CL =  0.3206
      Cm = -0.0054     CD =  0.00833   =>   CDf =  0.00569    CDp =  0.00264
 plradd ia,ip,cpol           25          58  9.03600007E-02

 Point added to stored polar  1
 Save file unspecified or not available
 Dump file unspecified or not available

.OPERva   c>  
.OPERva   c>  
.OPERva   c>   Calculating wake trajectory ...
 Calculating source influence matrix ...

 Solving BL system ...

 Side 1  free  transition at x/c =  0.6211   37
 Side 2 forced transition at x/c =  1.0000   56

   1   rms: 0.1393E-01   max: -.1235E-01   C at   56  2
       a =  2.000      CL =  0.3295
      Cm = -0.0054     CD =  0.00833   =>   CDf =  0.00569    CDp =  0.00263

 Side 1  free  transition at x/c =  0.6155   37
 Side 2 forced transition at x/c =  1.0000   56

   2   rms: 0.7037E-03   max: -.6535E-02   C at   37  1
       a =  2.000      CL =  0.3294
      Cm = -0.0053     CD =  0.00833   =>   CDf =  0.00569    CDp =  0.00264

 Side 1  free  transition at x/c =  0.6158   37
 Side 2 forced transition at x/c =  1.0000   56

   3   rms: 0.2942E-05   max: -.4055E-04   D at   39  1
       a =  2.000      CL =  0.3294
      Cm = -0.0053     CD =  0.00833   =>   CDf =  0.00568    CDp =  0.00265
 plradd ia,ip,cpol           26          58  9.03600007E-02

 Point added to stored polar  1
 Save file unspecified or not available
 Dump file unspecified or not available

.OPERva   c>  
.OPERva   c>  
.OPERva   c>   Calculating wake trajectory ...
 Calculating source influence matrix ...

 Solving BL system ...

 Side 1  free  transition at x/c =  0.6158   37
 Side 2 forced transition at x/c =  1.0000   56

   1   rms: 0.1332E-01   max: -.1281E-01   C at   56  2
       a =  2.080      CL =  0.3381
      Cm = -0.0053     CD =  0.00834   =>   CDf =  0.00568    CDp =  0.00266

 Side 1  free  transition at x/c =  0.6107   37
 Side 2 forced transition at x/c =  1.0000   56

   2   rms: 0.6062E-03   max: -.6031E-02   C at   37  1
       a =  2.080      CL =  0.3380
      Cm = -0.0053     CD =  0.00834   =>   CDf =  0.00570    CDp =  0.00264

 Side 1  free  transition at x/c =  0.6110   37
 Side 2 forced transition at x/c =  1.0000   56

   3   rms: 0.2695E-05   max: -.4040E-04   D at   39  1
       a =  2.080      CL =  0.3380
      Cm = -0.0053     CD =  0.00834   =>   CDf =  0.00569    CDp =  0.00265
 plradd ia,ip,cpol           27          58  7.63799995E-02

 Point added to stored polar  1
 Save file unspecified or not available
 Dump file unspecified or not available

.OPERva   c>  
.OPERva   c>  
.OPERva   c>   Calculating wake trajectory ...
 Calculating source influence matrix ...

 Solving BL system ...

 Side 1  free  transition at x/c =  0.6110   37
 Side 2 forced transition at x/c =  1.0000   56

   1   rms: 0.1316E-01   max: -.1214E-01   C at   56  2
       a =  2.160      CL =  0.3466
      Cm = -0.0052     CD =  0.00835   =>   CDf =  0.00569    CDp =  0.00266

 Side 1  free  transition at x/c =  0.6055   37
 Side 2 forced transition at x/c =  1.0000   56

   2   rms: 0.1105E-02   max: -.1109E-01   D at   37  1
       a =  2.160      CL =  0.3465
      Cm = -0.0051     CD =  0.00835   =>   CDf =  0.00573    CDp =  0.00263

 Side 1  free  transition at x/c =  0.6059   37
 Side 2 forced transition at x/c =  1.0000   56

   3   rms: 0.8653E-05   max: -.1033E-03   D at   38  1
       a =  2.160      CL =  0.3465
      Cm = -0.0051     CD =  0.00835   =>   CDf =  0.00572    CDp =  0.00263
 plradd ia,ip,cpol           28          58  7.63799995E-02

 Point added to stored polar  1
 Save file unspecified or not available
 Dump file unspecified or not available

.OPERva   c>  
.OPERva   c>  
.OPERva   c>   Calculating wake trajectory ...
 Calculating source influence matrix ...

 Solving BL system ...

 Side 1  free  transition at x/c =  0.6059   37
 Side 2 forced transition at x/c =  1.0000   56

   1   rms: 0.1432E-01   max: -.3688E-01   D at    8  2
       a =  2.240      CL =  0.3550
      Cm = -0.0050     CD =  0.00837   =>   CDf =  0.00572    CDp =  0.00265

 Side 1  free  transition at x/c =  0.6013   37
 Side 2 forced transition at x/c =  1.0000   56

   2   rms: 0.7238E-03   max: -.7407E-02   D at   37  1
       a =  2.240      CL =  0.3549
      Cm = -0.0050     CD =  0.00838   =>   CDf =  0.00577    CDp =  0.00261

 Side 1  free  transition at x/c =  0.6015   37
 Side 2 forced transition at x/c =  1.0000   56

   3   rms: 0.3024E-05   max: -.4249E-04   D at   38  1
       a =  2.240      CL =  0.3549
      Cm = -0.0050     CD =  0.00838   =>   CDf =  0.00576    CDp =  0.00261
 plradd ia,ip,cpol           29          58  9.03600007E-02

 Point added to stored polar  1
 Save file unspecified or not available
 Dump file unspecified or not available

.OPERva   c>  
.OPERva   c>  
.OPERva   c>   Calculating wake trajectory ...
 Calculating source influence matrix ...

 Solving BL system ...

 Side 1  free  transition at x/c =  0.6015   37
 Side 2 forced transition at x/c =  1.0000   56

   1   rms: 0.1433E-01   max: -.6066E-01   D at    3  2
       a =  2.320      CL =  0.3633
      Cm = -0.0048     CD =  0.00841   =>   CDf =  0.00577    CDp =  0.00265

 Side 1  free  transition at x/c =  0.5973   37
 Side 2 forced transition at x/c =  1.0000   56

   2   rms: 0.2344E-03   max: -.3184E-02   D at   38  1
       a =  2.320      CL =  0.3633
      Cm = -0.0048     CD =  0.00842   =>   CDf =  0.00582    CDp =  0.00260

 Side 1  free  transition at x/c =  0.5972   36
 Side 2 forced transition at x/c =  1.0000   56

   3   rms: 0.4338E-04   max: -.6556E-03   C at   36  1
       a =  2.320      CL =  0.3633
      Cm = -0.0048     CD =  0.00842   =>   CDf =  0.00582    CDp =  0.00260
 plradd ia,ip,cpol           30          58  7.63799995E-02

 Point added to stored polar  1
 Save file unspecified or not available
 Dump file unspecified or not available

.OPERva   c>  
.OPERva   c>  
.OPERva   c>   Calculating wake trajectory ...
 Calculating source influence matrix ...

 Solving BL system ...

 Side 1  free  transition at x/c =  0.5972   36
 Side 2 forced transition at x/c =  1.0000   56

   1   rms: 0.1383E-01   max: -.1269E-01   C at   56  2
       a =  2.400      CL =  0.3723
      Cm = -0.0049     CD =  0.00842   =>   CDf =  0.00582    CDp =  0.00260

 Side 1  free  transition at x/c =  0.5915   36
 Side 2 forced transition at x/c =  1.0000   56

   2   rms: 0.6127E-03   max: -.5474E-02   C at   36  1
       a =  2.400      CL =  0.3722
      Cm = -0.0048     CD =  0.00843   =>   CDf =  0.00580    CDp =  0.00263

 Side 1  free  transition at x/c =  0.5918   36
 Side 2 forced transition at x/c =  1.0000   56

   3   rms: 0.1922E-05   max: -.2442E-04   D at   38  1
       a =  2.400      CL =  0.3722
      Cm = -0.0048     CD =  0.00843   =>   CDf =  0.00580    CDp =  0.00263
 plradd ia,ip,cpol           31          58  6.35199994E-02

 Point added to stored polar  1
 Save file unspecified or not available
 Dump file unspecified or not available

.OPERva   c>  
.OPERva   c>  
.OPERva   c>   Calculating wake trajectory ...
 Calculating source influence matrix ...

 Solving BL system ...

 Side 1  free  transition at x/c =  0.5918   36
 Side 2 forced transition at x/c =  1.0000   56

   1   rms: 0.1429E-01   max: -.1536E-01   D at   15  2
       a =  2.480      CL =  0.3810
      Cm = -0.0048     CD =  0.00843   =>   CDf =  0.00580    CDp =  0.00264

 Side 1  free  transition at x/c =  0.5861   36
 Side 2 forced transition at x/c =  1.0000   56

   2   rms: 0.2472E-03   max: 0.3031E-02   D at   38  1
       a =  2.480      CL =  0.3809
      Cm = -0.0048     CD =  0.00844   =>   CDf =  0.00580    CDp =  0.00264

 Side 1  free  transition at x/c =  0.5861   36
 Side 2 forced transition at x/c =  1.0000   56

   3   rms: 0.8971E-06   max: -.6589E-05   D at   38  1
       a =  2.480      CL =  0.3809
      Cm = -0.0048     CD =  0.00844   =>   CDf =  0.00580    CDp =  0.00264
 plradd ia,ip,cpol           32          58  7.63799995E-02

 Point added to stored polar  1
 Save file unspecified or not available
 Dump file unspecified or not available

.OPERva   c>  
.OPERva   c>  
.OPERva   c>   Calculating wake trajectory ...
 Calculating source influence matrix ...

 Solving BL system ...

 Side 1  free  transition at x/c =  0.5861   36
 Side 2 forced transition at x/c =  1.0000   56

   1   rms: 0.1300E-01   max: -.1451E-01   D at   16  2
       a =  2.560      CL =  0.3896
      Cm = -0.0047     CD =  0.00846   =>   CDf =  0.00580    CDp =  0.00266

 Side 1  free  transition at x/c =  0.5806   36
 Side 2 forced transition at x/c =  1.0000   56

   2   rms: 0.1133E-02   max: -.1200E-01   C at   36  1
       a =  2.560      CL =  0.3895
      Cm = -0.0047     CD =  0.00846   =>   CDf =  0.00582    CDp =  0.00264

 Side 1  free  transition at x/c =  0.5810   36
 Side 2 forced transition at x/c =  1.0000   56

   3   rms: 0.9318E-05   max: -.1127E-03   D at   37  1
       a =  2.560      CL =  0.3895
      Cm = -0.0047     CD =  0.00846   =>   CDf =  0.00582    CDp =  0.00265
 plradd ia,ip,cpol           33          58  7.63799995E-02

 Point added to stored polar  1
 Save file unspecified or not available
 Dump file unspecified or not available

.OPERva   c>  
.OPERva   c>  
.OPERva   c>   Calculating wake trajectory ...
 Calculating source influence matrix ...

 Solving BL system ...

 Side 1  free  transition at x/c =  0.5810   36
 Side 2 forced transition at x/c =  1.0000   56

   1   rms: 0.1306E-01   max: -.1224E-01   C at   56  2
       a =  2.640      CL =  0.3980
      Cm = -0.0046     CD =  0.00849   =>   CDf =  0.00582    CDp =  0.00267

 Side 1  free  transition at x/c =  0.5754   36
 Side 2 forced transition at x/c =  1.0000   56

   2   rms: 0.1466E-02   max: -.1378E-01   C at   36  1
       a =  2.640      CL =  0.3980
      Cm = -0.0046     CD =  0.00849   =>   CDf =  0.00587    CDp =  0.00263

 Side 1  free  transition at x/c =  0.5759   36
 Side 2 forced transition at x/c =  1.0000   56

   3   rms: 0.1473E-04   max: -.2223E-03   D at   37  1
       a =  2.640      CL =  0.3980
      Cm = -0.0046     CD =  0.00849   =>   CDf =  0.00586    CDp =  0.00264
 plradd ia,ip,cpol           34          58  5.18199988E-02

 Point added to stored polar  1
 Save file unspecified or not available
 Dump file unspecified or not available

.OPERva   c>  
.OPERva   c>  
.OPERva   c>   Calculating wake trajectory ...
 Calculating source influence matrix ...

 Solving BL system ...

 Side 1  free  transition at x/c =  0.5759   36
 Side 2 forced transition at x/c =  1.0000   56

   1   rms: 0.1342E-01   max: -.1193E-01   C at   56  2
       a =  2.720      CL =  0.4064
      Cm = -0.0044     CD =  0.00854   =>   CDf =  0.00586    CDp =  0.00268

 Side 1  free  transition at x/c =  0.5707   36
 Side 2 forced transition at x/c =  1.0000   56

   2   rms: 0.9572E-03   max: -.8173E-02   T at   36  1
       a =  2.720      CL =  0.4064
      Cm = -0.0044     CD =  0.00854   =>   CDf =  0.00592    CDp =  0.00262

 Side 1  free  transition at x/c =  0.5710   36
 Side 2 forced transition at x/c =  1.0000   56

   3   rms: 0.9978E-05   max: -.1528E-03   D at   37  1
       a =  2.720      CL =  0.4064
      Cm = -0.0044     CD =  0.00854   =>   CDf =  0.00591    CDp =  0.00263
 plradd ia,ip,cpol           35          58  6.35199994E-02

 Point added to stored polar  1
 Save file unspecified or not available
 Dump file unspecified or not available

.OPERva   c>  
.OPERva   c>  
.OPERva   c>   Calculating wake trajectory ...
 Calculating source influence matrix ...

 Solving BL system ...

 Side 1  free  transition at x/c =  0.5710   36
 Side 2 forced transition at x/c =  1.0000   56

   1   rms: 0.1485E-01   max: -.1222E-01   C at   56  2
       a =  2.800      CL =  0.4146
      Cm = -0.0042     CD =  0.00861   =>   CDf =  0.00591    CDp =  0.00270

 Side 1  free  transition at x/c =  0.5658   35
 Side 2 forced transition at x/c =  1.0000   56

   2   rms: 0.3627E-02   max: -.4737E-01   C at   35  1
       a =  2.800      CL =  0.4151
      Cm = -0.0044     CD =  0.00856   =>   CDf =  0.00592    CDp =  0.00264

 Side 1  free  transition at x/c =  0.5648   35
 Side 2 forced transition at x/c =  1.0000   56

   3   rms: 0.4873E-04   max: 0.6600E-03   C at   35  1
       a =  2.800      CL =  0.4151
      Cm = -0.0044     CD =  0.00856   =>   CDf =  0.00590    CDp =  0.00266
 plradd ia,ip,cpol           36          58  5.18199988E-02

 Point added to stored polar  1
 Save file unspecified or not available
 Dump file unspecified or not available

.OPERva   c>  
.OPERva   c>  
.OPERva   c>   Calculating wake trajectory ...
 Calculating source influence matrix ...

 Solving BL system ...

 Side 1  free  transition at x/c =  0.5648   35
 Side 2 forced transition at x/c =  1.0000   56

   1   rms: 0.1292E-01   max: -.1735E-01   D at   12  2
       a =  2.880      CL =  0.4239
      Cm = -0.0044     CD =  0.00858   =>   CDf =  0.00590    CDp =  0.00268

 Side 1  free  transition at x/c =  0.5578   35
 Side 2 forced transition at x/c =  1.0000   56

   2   rms: 0.2496E-02   max: -.2929E-01   C at   35  1
       a =  2.880      CL =  0.4239
      Cm = -0.0043     CD =  0.00858   =>   CDf =  0.00591    CDp =  0.00267

 Side 1  free  transition at x/c =  0.5590   35
 Side 2 forced transition at x/c =  1.0000   56

   3   rms: 0.3671E-04   max: -.4694E-03   D at   37  1
       a =  2.880      CL =  0.4239
      Cm = -0.0043     CD =  0.00858   =>   CDf =  0.00590    CDp =  0.00268
 plradd ia,ip,cpol           37          58  5.18199988E-02

 Point added to stored polar  1
 Save file unspecified or not available
 Dump file unspecified or not available

.OPERva   c>  
.OPERva   c>  
.OPERva   c>   Calculating wake trajectory ...
 Calculating source influence matrix ...

 Solving BL system ...

 Side 1  free  transition at x/c =  0.5590   35
 Side 2 forced transition at x/c =  1.0000   56

   1   rms: 0.1378E-01   max: -.2108E-01   D at   11  2
       a =  2.960      CL =  0.4325
      Cm = -0.0043     CD =  0.00861   =>   CDf =  0.00583    CDp =  0.00278

 Side 1  free  transition at x/c =  0.5515   36
 Side 2 forced transition at x/c =  1.0000   55

   2   rms: 0.2396E-01   max: -.3462E+00   D at    2  1
       a =  2.960      CL =  0.4324
      Cm = -0.0042     CD =  0.00861   =>   CDf =  0.00591    CDp =  0.00270

 Side 1  free  transition at x/c =  0.5521   36
 Side 2 forced transition at x/c =  1.0000   55

   3   rms: 0.5176E-02   max: 0.4691E-01   D at    5  1
       a =  2.960      CL =  0.4324
      Cm = -0.0042     CD =  0.00861   =>   CDf =  0.00590    CDp =  0.00271

 Side 1  free  transition at x/c =  0.5521   36
 Side 2 forced transition at x/c =  1.0000   55

   4   rms: 0.4480E-04   max: -.4433E-03   D at    7  1
       a =  2.960      CL =  0.4324
      Cm = -0.0042     CD =  0.00861   =>   CDf =  0.00590    CDp =  0.00272
 plradd ia,ip,cpol           38          59  5.18199988E-02

 Point added to stored polar  1
 Save file unspecified or not available
 Dump file unspecified or not available

.OPERva   c>  
.OPERva   c>  
.OPERva   c>   Calculating wake trajectory ...
 Calculating source influence matrix ...

 Solving BL system ...

 Side 1  free  transition at x/c =  0.5521   36
 Side 2 forced transition at x/c =  1.0000   55

   1   rms: 0.1379E-01   max: -.6040E-01   D at   37  1
       a =  3.040      CL =  0.4409
      Cm = -0.0041     CD =  0.00865   =>   CDf =  0.00590    CDp =  0.00276

 Side 1  free  transition at x/c =  0.5460   36
 Side 2 forced transition at x/c =  1.0000   55

   2   rms: 0.1134E-02   max: -.9705E-02   C at   36  1
       a =  3.040      CL =  0.4408
      Cm = -0.0041     CD =  0.00866   =>   CDf =  0.00595    CDp =  0.00270

 Side 1  free  transition at x/c =  0.5464   36
 Side 2 forced transition at x/c =  1.0000   55

   3   rms: 0.6604E-05   max: -.1000E-03   D at   37  1
       a =  3.040      CL =  0.4408
      Cm = -0.0041     CD =  0.00866   =>   CDf =  0.00595    CDp =  0.00271
 plradd ia,ip,cpol           39          59  5.18199988E-02

 Point added to stored polar  1
 Save file unspecified or not available
 Dump file unspecified or not available

.OPERva   c>  
.OPERva   c>  
.OPERva   c>   Calculating wake trajectory ...
 Calculating source influence matrix ...

 Solving BL system ...

 Side 1  free  transition at x/c =  0.5464   36
 Side 2 forced transition at x/c =  1.0000   55

   1   rms: 0.1422E-01   max: -.7561E-01   D at   36  1
       a =  3.120      CL =  0.4492
      Cm = -0.0040     CD =  0.00872   =>   CDf =  0.00595    CDp =  0.00277

 Side 1  free  transition at x/c =  0.5417   35
 Side 2 forced transition at x/c =  1.0000   55

   2   rms: 0.1421E-02   max: -.1741E-01   C at   35  1
       a =  3.120      CL =  0.4494
      Cm = -0.0040     CD =  0.00870   =>   CDf =  0.00597    CDp =  0.00273

 Side 1  free  transition at x/c =  0.5408   35
 Side 2 forced transition at x/c =  1.0000   55

   3   rms: 0.1611E-04   max: 0.1675E-03   D at   37  1
       a =  3.120      CL =  0.4494
      Cm = -0.0040     CD =  0.00870   =>   CDf =  0.00597    CDp =  0.00273
 plradd ia,ip,cpol           40          59  5.18199988E-02

 Point added to stored polar  1
 Save file unspecified or not available
 Dump file unspecified or not available

.OPERva   c>  
.OPERva   c>  
.OPERva   c>   Calculating wake trajectory ...
 Calculating source influence matrix ...

 Solving BL system ...

 Side 1  free  transition at x/c =  0.5408   35
 Side 2 forced transition at x/c =  1.0000   55

   1   rms: 0.1267E-01   max: -.1359E-01   D at   15  2
       a =  3.200      CL =  0.4583
      Cm = -0.0040     CD =  0.00872   =>   CDf =  0.00597    CDp =  0.00275

 Side 1  free  transition at x/c =  0.5338   35
 Side 2 forced transition at x/c =  1.0000   55

   2   rms: 0.9133E-03   max: -.1139E-01   C at   35  1
       a =  3.200      CL =  0.4582
      Cm = -0.0040     CD =  0.00872   =>   CDf =  0.00596    CDp =  0.00276

 Side 1  free  transition at x/c =  0.5343   35
 Side 2 forced transition at x/c =  1.0000   55

   3   rms: 0.7983E-05   max: -.1117E-03   D at   37  1
       a =  3.200      CL =  0.4582
      Cm = -0.0040     CD =  0.00872   =>   CDf =  0.00596    CDp =  0.00276
 plradd ia,ip,cpol           41          59  5.18199988E-02

 Point added to stored polar  1
 Save file unspecified or not available
 Dump file unspecified or not available

.OPERva   c>  
.OPERva   c>  
.OPERva   c>   Calculating wake trajectory ...
 Calculating source influence matrix ...

 Solving BL system ...

 Side 1  free  transition at x/c =  0.5343   35
 Side 2 forced transition at x/c =  1.0000   55

   1   rms: 0.1323E-01   max: -.1273E-01   C at   55  2
       a =  3.280      CL =  0.4668
      Cm = -0.0039     CD =  0.00876   =>   CDf =  0.00596    CDp =  0.00280

 Side 1  free  transition at x/c =  0.5276   35
 Side 2 forced transition at x/c =  1.0000   55

   2   rms: 0.5871E-03   max: -.7104E-02   C at   35  1
       a =  3.280      CL =  0.4668
      Cm = -0.0039     CD =  0.00876   =>   CDf =  0.00598    CDp =  0.00278

 Side 1  free  transition at x/c =  0.5278   35
 Side 2 forced transition at x/c =  1.0000   55

   3   rms: 0.2673E-05   max: -.3220E-04   D at   36  1
       a =  3.280      CL =  0.4668
      Cm = -0.0039     CD =  0.00876   =>   CDf =  0.00598    CDp =  0.00278
 plradd ia,ip,cpol           42          59  5.18199988E-02

 Point added to stored polar  1
 Save file unspecified or not available
 Dump file unspecified or not available

.OPERva   c>  
.OPERva   c>  
.OPERva   c>   Calculating wake trajectory ...
 Calculating source influence matrix ...

 Solving BL system ...

 Side 1  free  transition at x/c =  0.5278   35
 Side 2 forced transition at x/c =  1.0000   55

   1   rms: 0.1361E-01   max: -.1223E-01   C at   55  2
       a =  3.360      CL =  0.4753
      Cm = -0.0038     CD =  0.00881   =>   CDf =  0.00598    CDp =  0.00283

 Side 1  free  transition at x/c =  0.5215   35
 Side 2 forced transition at x/c =  1.0000   55

   2   rms: 0.6152E-03   max: -.6636E-02   C at   35  1
       a =  3.360      CL =  0.4753
      Cm = -0.0038     CD =  0.00881   =>   CDf =  0.00603    CDp =  0.00279

 Side 1  free  transition at x/c =  0.5217   35
 Side 2 forced transition at x/c =  1.0000   55

   3   rms: 0.2514E-05   max: -.3396E-04   D at   36  1
       a =  3.360      CL =  0.4753
      Cm = -0.0038     CD =  0.00881   =>   CDf =  0.00602    CDp =  0.00279
 plradd ia,ip,cpol           43          59  5.18199988E-02

 Point added to stored polar  1
 Save file unspecified or not available
 Dump file unspecified or not available

.OPERva   c>  
.OPERva   c>  
.OPERva   c>   Calculating wake trajectory ...
 Calculating source influence matrix ...

 Solving BL system ...

 Side 1  free  transition at x/c =  0.5217   35
 Side 2 forced transition at x/c =  1.0000   55

   1   rms: 0.1367E-01   max: -.1180E-01   C at   55  2
       a =  3.440      CL =  0.4837
      Cm = -0.0037     CD =  0.00888   =>   CDf =  0.00602    CDp =  0.00285

 Side 1  free  transition at x/c =  0.5163   34
 Side 2 forced transition at x/c =  1.0000   55

   2   rms: 0.4678E-03   max: -.6789E-02   C at   34  1
       a =  3.440      CL =  0.4837
      Cm = -0.0037     CD =  0.00888   =>   CDf =  0.00608    CDp =  0.00281

 Side 1  free  transition at x/c =  0.5163   34
 Side 2 forced transition at x/c =  1.0000   55

   3   rms: 0.2345E-05   max: -.8527E-05   D at   47  1
       a =  3.440      CL =  0.4837
      Cm = -0.0037     CD =  0.00888   =>   CDf =  0.00607    CDp =  0.00281
 plradd ia,ip,cpol           44          59  5.18199988E-02

 Point added to stored polar  1
 Save file unspecified or not available
 Dump file unspecified or not available

.OPERva   c>  
.OPERva   c>  
.OPERva   c>   Calculating wake trajectory ...
 Calculating source influence matrix ...

 Solving BL system ...

 Side 1  free  transition at x/c =  0.5163   34
 Side 2 forced transition at x/c =  1.0000   55

   1   rms: 0.1278E-01   max: -.1268E-01   C at   55  2
       a =  3.520      CL =  0.4926
      Cm = -0.0037     CD =  0.00890   =>   CDf =  0.00607    CDp =  0.00283

 Side 1  free  transition at x/c =  0.5097   34
 Side 2 forced transition at x/c =  1.0000   55

   2   rms: 0.8482E-03   max: -.1108E-01   C at   34  1
       a =  3.520      CL =  0.4925
      Cm = -0.0037     CD =  0.00891   =>   CDf =  0.00606    CDp =  0.00285

 Side 1  free  transition at x/c =  0.5102   34
 Side 2 forced transition at x/c =  1.0000   55

   3   rms: 0.3602E-05   max: -.5285E-04   D at   36  1
       a =  3.520      CL =  0.4925
      Cm = -0.0037     CD =  0.00891   =>   CDf =  0.00605    CDp =  0.00286
 plradd ia,ip,cpol           45          59  5.18199988E-02

 Point added to stored polar  1
 Save file unspecified or not available
 Dump file unspecified or not available

.OPERva   c>  
.OPERva   c>  
.OPERva   c>   Calculating wake trajectory ...
 Calculating source influence matrix ...

 Solving BL system ...

 Side 1  free  transition at x/c =  0.5102   34
 Side 2 forced transition at x/c =  1.0000   55

   1   rms: 0.1316E-01   max: -.1208E-01   C at   55  2
       a =  3.600      CL =  0.5012
      Cm = -0.0037     CD =  0.00895   =>   CDf =  0.00606    CDp =  0.00289

 Side 1  free  transition at x/c =  0.5014   34
 Side 2 forced transition at x/c =  1.0000   55

   2   rms: 0.2162E-02   max: -.2732E-01   C at   34  1
       a =  3.600      CL =  0.5011
      Cm = -0.0036     CD =  0.00895   =>   CDf =  0.00608    CDp =  0.00287

 Side 1  free  transition at x/c =  0.5024   34
 Side 2 forced transition at x/c =  1.0000   55

   3   rms: 0.3032E-04   max: -.4469E-03   D at   35  1
       a =  3.600      CL =  0.5011
      Cm = -0.0036     CD =  0.00895   =>   CDf =  0.00607    CDp =  0.00288
 plradd ia,ip,cpol           46          59  5.18199988E-02

 Point added to stored polar  1
 Save file unspecified or not available
 Dump file unspecified or not available

.OPERva   c>  
.OPERva   c>  
.OPERva   c>   Calculating wake trajectory ...
 Calculating source influence matrix ...

 Solving BL system ...

 Side 1  free  transition at x/c =  0.5024   34
 Side 2 forced transition at x/c =  1.0000   55

   1   rms: 0.1342E-01   max: -.2836E-01   D at    8  2
       a =  3.680      CL =  0.5097
      Cm = -0.0036     CD =  0.00901   =>   CDf =  0.00607    CDp =  0.00294

 Side 1  free  transition at x/c =  0.4961   34
 Side 2 forced transition at x/c =  1.0000   55

   2   rms: 0.8376E-03   max: -.9603E-02   C at   34  1
       a =  3.680      CL =  0.5096
      Cm = -0.0036     CD =  0.00901   =>   CDf =  0.00611    CDp =  0.00290

 Side 1  free  transition at x/c =  0.4965   34
 Side 2 forced transition at x/c =  1.0000   55

   3   rms: 0.5330E-05   max: -.8257E-04   D at   35  1
       a =  3.680      CL =  0.5096
      Cm = -0.0036     CD =  0.00901   =>   CDf =  0.00611    CDp =  0.00291
 plradd ia,ip,cpol           47          59  5.18199988E-02

 Point added to stored polar  1
 Save file unspecified or not available
 Dump file unspecified or not available

.OPERva   c>  
.OPERva   c>  
.OPERva   c>   Calculating wake trajectory ...
 Calculating source influence matrix ...

 Solving BL system ...

 Side 1  free  transition at x/c =  0.4965   34
 Side 2 forced transition at x/c =  1.0000   55

   1   rms: 0.1380E-01   max: -.6204E-01   D at   35  1
       a =  3.760      CL =  0.5181
      Cm = -0.0035     CD =  0.00908   =>   CDf =  0.00611    CDp =  0.00298

 Side 1  free  transition at x/c =  0.4908   34
 Side 2 forced transition at x/c =  1.0000   55

   2   rms: 0.2472E-03   max: -.2070E-02   C at   34  1
       a =  3.760      CL =  0.5181
      Cm = -0.0035     CD =  0.00910   =>   CDf =  0.00616    CDp =  0.00293

 Side 1  free  transition at x/c =  0.4908   34
 Side 2 forced transition at x/c =  1.0000   55

   3   rms: 0.1613E-05   max: -.6842E-05   D at   43  1
       a =  3.760      CL =  0.5181
      Cm = -0.0035     CD =  0.00910   =>   CDf =  0.00616    CDp =  0.00294
 plradd ia,ip,cpol           48          59  5.18199988E-02

 Point added to stored polar  1
 Save file unspecified or not available
 Dump file unspecified or not available

.OPERva   c>  
.OPERva   c>  
.OPERva   c>   Calculating wake trajectory ...
 Calculating source influence matrix ...

 Solving BL system ...

 Side 1  free  transition at x/c =  0.4908   34
 Side 2 forced transition at x/c =  1.0000   55

   1   rms: 0.1506E-01   max: -.9042E-01   D at   34  1
       a =  3.840      CL =  0.5264
      Cm = -0.0034     CD =  0.00919   =>   CDf =  0.00616    CDp =  0.00303

 Side 1  free  transition at x/c =  0.4848   33
 Side 2 forced transition at x/c =  1.0000   55

   2   rms: 0.3211E-02   max: -.3864E-01   C at   33  1
       a =  3.840      CL =  0.5267
      Cm = -0.0034     CD =  0.00914   =>   CDf =  0.00617    CDp =  0.00297

 Side 1  free  transition at x/c =  0.4842   33
 Side 2 forced transition at x/c =  1.0000   55

   3   rms: 0.3215E-04   max: 0.4702E-03   C at   33  1
       a =  3.840      CL =  0.5267
      Cm = -0.0034     CD =  0.00914   =>   CDf =  0.00615    CDp =  0.00298
 plradd ia,ip,cpol           49          59  5.18199988E-02

 Point added to stored polar  1
 Save file unspecified or not available
 Dump file unspecified or not available

.OPERva   c>  
.OPERva   c>  
.OPERva   c>   Calculating wake trajectory ...
 Calculating source influence matrix ...

 Solving BL system ...

 Side 1  free  transition at x/c =  0.4842   33
 Side 2 forced transition at x/c =  1.0000   55

   1   rms: 0.1346E-01   max: -.4472E-01   D at    4  2
       a =  3.920      CL =  0.5355
      Cm = -0.0034     CD =  0.00918   =>   CDf =  0.00616    CDp =  0.00302

 Side 1  free  transition at x/c =  0.4770   33
 Side 2 forced transition at x/c =  1.0000   55

   2   rms: 0.9527E-03   max: -.1249E-01   C at   33  1
       a =  3.920      CL =  0.5354
      Cm = -0.0034     CD =  0.00919   =>   CDf =  0.00617    CDp =  0.00302

 Side 1  free  transition at x/c =  0.4775   33
 Side 2 forced transition at x/c =  1.0000   55

   3   rms: 0.6115E-05   max: -.8475E-04   D at   34  1
       a =  3.920      CL =  0.5354
      Cm = -0.0034     CD =  0.00919   =>   CDf =  0.00616    CDp =  0.00303
 plradd ia,ip,cpol           50          59  4.13199998E-02

 Point added to stored polar  1
 Save file unspecified or not available
 Dump file unspecified or not available

.OPERva   c>  
.OPERva   c>  
.OPERva   c>   Calculating wake trajectory ...
 Calculating source influence matrix ...

 Solving BL system ...

 Side 1  free  transition at x/c =  0.4775   33
 Side 2 forced transition at x/c =  1.0000   55

   1   rms: 0.1367E-01   max: -.1508E-01   D at   15  2
       a =  4.000      CL =  0.5440
      Cm = -0.0033     CD =  0.00925   =>   CDf =  0.00616    CDp =  0.00309

 Side 1  free  transition at x/c =  0.4699   33
 Side 2 forced transition at x/c =  1.0000   55

   2   rms: 0.1844E-02   max: -.2129E-01   C at   33  1
       a =  4.000      CL =  0.5439
      Cm = -0.0033     CD =  0.00926   =>   CDf =  0.00621    CDp =  0.00305

 Side 1  free  transition at x/c =  0.4707   33
 Side 2 forced transition at x/c =  1.0000   55

   3   rms: 0.2109E-04   max: -.3601E-03   D at   34  1
       a =  4.000      CL =  0.5439
      Cm = -0.0033     CD =  0.00926   =>   CDf =  0.00620    CDp =  0.00306
 plradd ia,ip,cpol           51          59  4.13199998E-02

 Point added to stored polar  1
 Save file unspecified or not available
 Dump file unspecified or not available

.OPERva   c>  
.OPERva   c>  
.OPERva   c>   Calculating wake trajectory ...
 Calculating source influence matrix ...

 Solving BL system ...

 Side 1  free  transition at x/c =  0.4707   33
 Side 2 forced transition at x/c =  1.0000   55

   1   rms: 0.1511E-01   max: -.7361E-01   D at   34  1
       a =  4.080      CL =  0.5524
      Cm = -0.0033     CD =  0.00934   =>   CDf =  0.00620    CDp =  0.00314

 Side 1  free  transition at x/c =  0.4646   33
 Side 2 forced transition at x/c =  1.0000   55

   2   rms: 0.6108E-03   max: -.8135E-02   D at   34  1
       a =  4.080      CL =  0.5523
      Cm = -0.0033     CD =  0.00935   =>   CDf =  0.00625    CDp =  0.00310

 Side 1  free  transition at x/c =  0.4643   33
 Side 2 forced transition at x/c =  1.0000   55

   3   rms: 0.4205E-05   max: -.7057E-04   D at   34  1
       a =  4.080      CL =  0.5523
      Cm = -0.0033     CD =  0.00935   =>   CDf =  0.00626    CDp =  0.00309
 plradd ia,ip,cpol           52          59  4.13199998E-02

 Point added to stored polar  1
 Save file unspecified or not available
 Dump file unspecified or not available

.OPERva   c>  
.OPERva   c>  
.OPERva   c>   Calculating wake trajectory ...
 Calculating source influence matrix ...

 Solving BL system ...

 Side 1  free  transition at x/c =  0.4643   33
 Side 2 forced transition at x/c =  1.0000   55

   1   rms: 0.1710E-01   max: -.8404E-01   D at    3  2
       a =  4.160      CL =  0.5606
      Cm = -0.0032     CD =  0.00946   =>   CDf =  0.00626    CDp =  0.00321

 Side 1  free  transition at x/c =  0.4579   32
 Side 2 forced transition at x/c =  1.0000   55

   2   rms: 0.3632E-02   max: -.4568E-01   C at   32  1
       a =  4.160      CL =  0.5609
      Cm = -0.0032     CD =  0.00940   =>   CDf =  0.00626    CDp =  0.00314

 Side 1  free  transition at x/c =  0.4577   32
 Side 2 forced transition at x/c =  1.0000   55

   3   rms: 0.5654E-04   max: 0.8009E-03   C at   32  1
       a =  4.160      CL =  0.5609
      Cm = -0.0032     CD =  0.00940   =>   CDf =  0.00625    CDp =  0.00315
 plradd ia,ip,cpol           53          59  4.13199998E-02

 Point added to stored polar  1
 Save file unspecified or not available
 Dump file unspecified or not available

.OPERva   c>  
.OPERva   c>  
.OPERva   c>   Calculating wake trajectory ...
 Calculating source influence matrix ...

 Solving BL system ...

 Side 1  free  transition at x/c =  0.4577   32
 Side 2 forced transition at x/c =  1.0000   55

   1   rms: 0.1528E-01   max: -.7905E-01   D at    4  2
       a =  4.240      CL =  0.5697
      Cm = -0.0032     CD =  0.00945   =>   CDf =  0.00625    CDp =  0.00320

 Side 1  free  transition at x/c =  0.4501   32
 Side 2 forced transition at x/c =  1.0000   55

   2   rms: 0.2081E-02   max: -.2716E-01   C at   32  1
       a =  4.240      CL =  0.5696
      Cm = -0.0032     CD =  0.00946   =>   CDf =  0.00626    CDp =  0.00320

 Side 1  free  transition at x/c =  0.4511   32
 Side 2 forced transition at x/c =  1.0000   55

   3   rms: 0.2636E-04   max: -.4100E-03   D at   33  1
       a =  4.240      CL =  0.5696
      Cm = -0.0032     CD =  0.00946   =>   CDf =  0.00625    CDp =  0.00321
 plradd ia,ip,cpol           54          59  4.13199998E-02

 Point added to stored polar  1
 Save file unspecified or not available
 Dump file unspecified or not available

.OPERva   c>  
.OPERva   c>  
.OPERva   c>   Calculating wake trajectory ...
 Calculating source influence matrix ...

 Solving BL system ...

 Side 1  free  transition at x/c =  0.4510   32
 Side 2 forced transition at x/c =  1.0000   55

   1   rms: 0.1448E-01   max: -.1231E-01   C at   55  2
       a =  4.320      CL =  0.5781
      Cm = -0.0031     CD =  0.00952   =>   CDf =  0.00625    CDp =  0.00327

 Side 1  free  transition at x/c =  0.4437   32
 Side 2 forced transition at x/c =  1.0000   55

   2   rms: 0.1404E-02   max: -.1632E-01   C at   32  1
       a =  4.320      CL =  0.5781
      Cm = -0.0031     CD =  0.00953   =>   CDf =  0.00629    CDp =  0.00324

 Side 1  free  transition at x/c =  0.4443   32
 Side 2 forced transition at x/c =  1.0000   55

   3   rms: 0.1146E-04   max: -.1944E-03   D at   33  1
       a =  4.320      CL =  0.5781
      Cm = -0.0031     CD =  0.00953   =>   CDf =  0.00628    CDp =  0.00325
 plradd ia,ip,cpol           55          59  4.13199998E-02

 Point added to stored polar  1
 Save file unspecified or not available
 Dump file unspecified or not available

.OPERva   c>  
.OPERva   c>  
.OPERva   c>   Calculating wake trajectory ...
 Calculating source influence matrix ...

 Solving BL system ...

 Side 1  free  transition at x/c =  0.4443   32
 Side 2 forced transition at x/c =  1.0000   55

   1   rms: 0.1514E-01   max: -.7908E-01   D at   32  1
       a =  4.400      CL =  0.5865
      Cm = -0.0030     CD =  0.00962   =>   CDf =  0.00628    CDp =  0.00334

 Side 1  free  transition at x/c =  0.4370   32
 Side 2 forced transition at x/c =  1.0000   55

   2   rms: 0.4930E-03   max: -.4053E-02   C at   32  1
       a =  4.400      CL =  0.5864
      Cm = -0.0030     CD =  0.00964   =>   CDf =  0.00635    CDp =  0.00329

 Side 1  free  transition at x/c =  0.4372   32
 Side 2 forced transition at x/c =  1.0000   55

   3   rms: 0.3278E-05   max: -.1640E-04   D at   33  1
       a =  4.400      CL =  0.5864
      Cm = -0.0030     CD =  0.00964   =>   CDf =  0.00635    CDp =  0.00329
 plradd ia,ip,cpol           56          59  4.13199998E-02

 Point added to stored polar  1
 Save file unspecified or not available
 Dump file unspecified or not available

.OPERva   c>  
.OPERva   c>  
.OPERva   c>   Calculating wake trajectory ...
 Calculating source influence matrix ...

 Solving BL system ...

 Side 1  free  transition at x/c =  0.4372   32
 Side 2 forced transition at x/c =  1.0000   55

   1   rms: 0.1596E-01   max: -.9105E-01   D at   32  1
       a =  4.480      CL =  0.5947
      Cm = -0.0030     CD =  0.00977   =>   CDf =  0.00635    CDp =  0.00342

 Side 1  free  transition at x/c =  0.4314   31
 Side 2 forced transition at x/c =  1.0000   55

   2   rms: 0.3468E-02   max: -.3924E-01   C at   31  1
       a =  4.480      CL =  0.5951
      Cm = -0.0030     CD =  0.00969   =>   CDf =  0.00634    CDp =  0.00335

 Side 1  free  transition at x/c =  0.4308   31
 Side 2 forced transition at x/c =  1.0000   55

   3   rms: 0.4676E-04   max: 0.6272E-03   C at   31  1
       a =  4.480      CL =  0.5951
      Cm = -0.0030     CD =  0.00969   =>   CDf =  0.00633    CDp =  0.00336
 plradd ia,ip,cpol           57          59  4.13199998E-02

 Point added to stored polar  1
 Save file unspecified or not available
 Dump file unspecified or not available

.OPERva   c>  
.OPERva   c>  
.OPERva   c>   Calculating wake trajectory ...
 Calculating source influence matrix ...

 Solving BL system ...

 Side 1  free  transition at x/c =  0.4308   31
 Side 2 forced transition at x/c =  1.0000   55

   1   rms: 0.1326E-01   max: -.1367E-01   D at   15  2
       a =  4.560      CL =  0.6038
      Cm = -0.0030     CD =  0.00975   =>   CDf =  0.00633    CDp =  0.00342

 Side 1  free  transition at x/c =  0.4233   31
 Side 2 forced transition at x/c =  1.0000   55

   2   rms: 0.1357E-02   max: -.1766E-01   C at   31  1
       a =  4.560      CL =  0.6037
      Cm = -0.0030     CD =  0.00976   =>   CDf =  0.00635    CDp =  0.00341

 Side 1  free  transition at x/c =  0.4239   31
 Side 2 forced transition at x/c =  1.0000   55

   3   rms: 0.1204E-04   max: -.1927E-03   D at   32  1
       a =  4.560      CL =  0.6037
      Cm = -0.0030     CD =  0.00976   =>   CDf =  0.00634    CDp =  0.00342
 plradd ia,ip,cpol           58          59  4.13199998E-02

 Point added to stored polar  1
 Save file unspecified or not available
 Dump file unspecified or not available

.OPERva   c>  
.OPERva   c>  
.OPERva   c>   Calculating wake trajectory ...
 Calculating source influence matrix ...

 Solving BL system ...

 Side 1  free  transition at x/c =  0.4239   31
 Side 2 forced transition at x/c =  1.0000   55

   1   rms: 0.1447E-01   max: -.3498E-01   D at    8  2
       a =  4.640      CL =  0.6122
      Cm = -0.0029     CD =  0.00983   =>   CDf =  0.00634    CDp =  0.00349

 Side 1  free  transition at x/c =  0.4166   31
 Side 2 forced transition at x/c =  1.0000   55

   2   rms: 0.1290E-02   max: -.1448E-01   C at   31  1
       a =  4.640      CL =  0.6121
      Cm = -0.0029     CD =  0.00984   =>   CDf =  0.00638    CDp =  0.00346

 Side 1  free  transition at x/c =  0.4171   31
 Side 2 forced transition at x/c =  1.0000   55

   3   rms: 0.1004E-04   max: -.1698E-03   D at   32  1
       a =  4.640      CL =  0.6121
      Cm = -0.0029     CD =  0.00984   =>   CDf =  0.00637    CDp =  0.00347
 plradd ia,ip,cpol           59          59  3.19800004E-02

 Point added to stored polar  1
 Save file unspecified or not available
 Dump file unspecified or not available

.OPERva   c>  
.OPERva   c>  
.OPERva   c>   Calculating wake trajectory ...
 Calculating source influence matrix ...

 Solving BL system ...

 Side 1  free  transition at x/c =  0.4171   31
 Side 2 forced transition at x/c =  1.0000   55

   1   rms: 0.1533E-01   max: -.8509E-01   D at   31  1
       a =  4.720      CL =  0.6205
      Cm = -0.0029     CD =  0.00995   =>   CDf =  0.00609    CDp =  0.00385

 Side 1  free  transition at x/c =  0.4101   31
 Side 2 forced transition at x/c =  1.0000   54

   2   rms: 0.3950E-01   max: -.5720E+00   D at    2  1   RLX: 0.874
       a =  4.720      CL =  0.6204
      Cm = -0.0029     CD =  0.00997   =>   CDf =  0.00638    CDp =  0.00358

 Side 1  free  transition at x/c =  0.4101   31
 Side 2 forced transition at x/c =  1.0000   54

   3   rms: 0.5729E-02   max: 0.5477E-01   D at    5  1
       a =  4.720      CL =  0.6204
      Cm = -0.0029     CD =  0.00997   =>   CDf =  0.00637    CDp =  0.00360

 Side 1  free  transition at x/c =  0.4099   31
 Side 2 forced transition at x/c =  1.0000   54

   4   rms: 0.1117E-03   max: 0.1314E-02   D at    7  1
       a =  4.720      CL =  0.6204
      Cm = -0.0029     CD =  0.00997   =>   CDf =  0.00637    CDp =  0.00360

 Side 1  free  transition at x/c =  0.4099   31
 Side 2 forced transition at x/c =  1.0000   54

   5   rms: 0.1020E-05   max: -.8643E-05   D at    5  1
       a =  4.720      CL =  0.6204
      Cm = -0.0029     CD =  0.00997   =>   CDf =  0.00637    CDp =  0.00360
 plradd ia,ip,cpol           60          60  3.19800004E-02

 Point added to stored polar  1
 Save file unspecified or not available
 Dump file unspecified or not available

.OPERva   c>  
.OPERva   c>  
.OPERva   c>   Calculating wake trajectory ...
 Calculating source influence matrix ...

 Solving BL system ...

 Side 1  free  transition at x/c =  0.4099   31
 Side 2 forced transition at x/c =  1.0000   54

   1   rms: 0.1389E-01   max: -.1173E-01   C at   54  2
       a =  4.800      CL =  0.6293
      Cm = -0.0028     CD =  0.01000   =>   CDf =  0.00637    CDp =  0.00363

 Side 1  free  transition at x/c =  0.4025   31
 Side 2 forced transition at x/c =  1.0000   54

   2   rms: 0.1554E-02   max: -.2123E-01   C at   31  1
       a =  4.800      CL =  0.6292
      Cm = -0.0028     CD =  0.01002   =>   CDf =  0.00635    CDp =  0.00367

 Side 1  free  transition at x/c =  0.4032   31
 Side 2 forced transition at x/c =  1.0000   54

   3   rms: 0.1101E-04   max: -.1475E-03   D at   32  1
       a =  4.800      CL =  0.6292
      Cm = -0.0028     CD =  0.01002   =>   CDf =  0.00634    CDp =  0.00367
 plradd ia,ip,cpol           61          60  3.19800004E-02

 Point added to stored polar  1
 Save file unspecified or not available
 Dump file unspecified or not available

.OPERva   c>  
.OPERva   c>  
.OPERva   c>   Calculating wake trajectory ...
 Calculating source influence matrix ...

 Solving BL system ...

 Side 1  free  transition at x/c =  0.4032   31
 Side 2 forced transition at x/c =  1.0000   54

   1   rms: 0.1426E-01   max: -.1259E-01   C at   54  2
       a =  4.880      CL =  0.6378
      Cm = -0.0028     CD =  0.01008   =>   CDf =  0.00634    CDp =  0.00374

 Side 1  free  transition at x/c =  0.3966   31
 Side 2 forced transition at x/c =  1.0000   54

   2   rms: 0.9568E-03   max: -.1193E-01   C at   31  1
       a =  4.880      CL =  0.6377
      Cm = -0.0028     CD =  0.01009   =>   CDf =  0.00635    CDp =  0.00374

 Side 1  free  transition at x/c =  0.3970   31
 Side 2 forced transition at x/c =  1.0000   54

   3   rms: 0.4746E-05   max: -.7586E-04   D at   32  1
       a =  4.880      CL =  0.6377
      Cm = -0.0028     CD =  0.01009   =>   CDf =  0.00635    CDp =  0.00374
 plradd ia,ip,cpol           62          60  2.37900000E-02

 Point added to stored polar  1
 Save file unspecified or not available
 Dump file unspecified or not available

.OPERva   c>  
.OPERva   c>  
.OPERva   c>   Calculating wake trajectory ...
 Calculating source influence matrix ...

 Solving BL system ...

 Side 1  free  transition at x/c =  0.3970   31
 Side 2 forced transition at x/c =  1.0000   54

   1   rms: 0.1390E-01   max: 0.6163E-01   C at   31  1
       a =  4.960      CL =  0.6462
      Cm = -0.0027     CD =  0.01018   =>   CDf =  0.00635    CDp =  0.00383

 Side 1  free  transition at x/c =  0.3901   31
 Side 2 forced transition at x/c =  1.0000   54

   2   rms: 0.9401E-03   max: -.1021E-01   C at   31  1
       a =  4.960      CL =  0.6461
      Cm = -0.0027     CD =  0.01019   =>   CDf =  0.00638    CDp =  0.00381

 Side 1  free  transition at x/c =  0.3905   31
 Side 2 forced transition at x/c =  1.0000   54

   3   rms: 0.4510E-05   max: -.7549E-04   D at   32  1
       a =  4.960      CL =  0.6461
      Cm = -0.0027     CD =  0.01019   =>   CDf =  0.00638    CDp =  0.00381
 plradd ia,ip,cpol           63          60  2.37900000E-02

 Point added to stored polar  1
 Save file unspecified or not available
 Dump file unspecified or not available

.OPERva   c>  
.OPERva   c>  
.OPERva   c>  
        airfoil                    Re           Mach       Ncrit  XtripT  XtripB     file
       ------------------------  ------------  ----------  -----  ------  ------    -------------------
 >  1  xfoil                     2.653e5       0.000        9.00   1.000   1.000    

Enter polar output filename   s>  
.OPERva   c>  
 ==============================================================
 Polar  1
  
       XFOIL         Version 6.99
  
 Calculated polar for: xfoil                                           
  
 1 1 Reynolds number fixed          Mach number fixed         
  
 xtrf =   1.000 (top)        1.000 (bottom)  
 Mach =   0.000     Re =     0.265 e 6     Ncrit =   9.000
  
   alpha    CL        CD       CDp       CM     Top_Xtr  Bot_Xtr
  ------ -------- --------- --------- -------- -------- --------
   0.000   0.1174   0.00820   0.00311  -0.0080   0.7095   1.0000
   0.080   0.1256   0.00821   0.00307  -0.0079   0.7069   1.0000
   0.160   0.1336   0.00822   0.00303  -0.0077   0.7041   1.0000
   0.240   0.1422   0.00823   0.00301  -0.0076   0.7012   1.0000
   0.320   0.1509   0.00822   0.00300  -0.0076   0.6978   1.0000
   0.400   0.1595   0.00821   0.00298  -0.0076   0.6940   1.0000
   0.480   0.1679   0.00820   0.00295  -0.0074   0.6902   1.0000
   0.560   0.1763   0.00819   0.00291  -0.0073   0.6865   1.0000
   0.640   0.1845   0.00819   0.00287  -0.0071   0.6830   1.0000
   0.720   0.1927   0.00820   0.00284  -0.0069   0.6799   1.0000
   0.800   0.2008   0.00823   0.00281  -0.0067   0.6766   1.0000
   0.880   0.2097   0.00822   0.00281  -0.0067   0.6724   1.0000
   0.960   0.2184   0.00821   0.00280  -0.0067   0.6686   1.0000
   1.040   0.2270   0.00821   0.00279  -0.0066   0.6644   1.0000
   1.120   0.2355   0.00821   0.00277  -0.0065   0.6608   1.0000
   1.200   0.2439   0.00822   0.00274  -0.0064   0.6571   1.0000
   1.280   0.2522   0.00823   0.00272  -0.0062   0.6538   1.0000
   1.360   0.2604   0.00827   0.00270  -0.0060   0.6504   1.0000
   1.440   0.2693   0.00826   0.00271  -0.0060   0.6464   1.0000
   1.520   0.2781   0.00826   0.00271  -0.0060   0.6421   1.0000
   1.600   0.2867   0.00826   0.00269  -0.0059   0.6373   1.0000
   1.680   0.2952   0.00827   0.00268  -0.0058   0.6336   1.0000
   1.760   0.3036   0.00829   0.00266  -0.0056   0.6294   1.0000
   1.840   0.3119   0.00831   0.00263  -0.0054   0.6252   1.0000
   1.920   0.3206   0.00833   0.00264  -0.0054   0.6211   1.0000
   2.000   0.3294   0.00833   0.00265  -0.0053   0.6158   1.0000
   2.080   0.3380   0.00834   0.00265  -0.0053   0.6110   1.0000
   2.160   0.3465   0.00835   0.00263  -0.0051   0.6059   1.0000
   2.240   0.3549   0.00838   0.00261  -0.0050   0.6015   1.0000
   2.320   0.3633   0.00842   0.00260  -0.0048   0.5972   1.0000
   2.400   0.3722   0.00843   0.00263  -0.0048   0.5918   1.0000
   2.480   0.3809   0.00844   0.00264  -0.0048   0.5861   1.0000
   2.560   0.3895   0.00846   0.00265  -0.0047   0.5810   1.0000
   2.640   0.3980   0.00849   0.00264  -0.0046   0.5759   1.0000
   2.720   0.4064   0.00854   0.00263  -0.0044   0.5710   1.0000
   2.800   0.4151   0.00856   0.00266  -0.0044   0.5648   1.0000
   2.880   0.4239   0.00858   0.00268  -0.0043   0.5590   1.0000
   2.960   0.4324   0.00861   0.00272  -0.0042   0.5521   1.0000
   3.040   0.4408   0.00866   0.00271  -0.0041   0.5464   1.0000
   3.120   0.4494   0.00870   0.00273  -0.0040   0.5408   1.0000
   3.200   0.4582   0.00872   0.00276  -0.0040   0.5343   1.0000
   3.280   0.4668   0.00876   0.00278  -0.0039   0.5278   1.0000
   3.360   0.4753   0.00881   0.00279  -0.0038   0.5217   1.0000
   3.440   0.4837   0.00888   0.00281  -0.0037   0.5163   1.0000
   3.520   0.4925   0.00891   0.00286  -0.0037   0.5102   1.0000
   3.600   0.5011   0.00895   0.00288  -0.0036   0.5024   1.0000
   3.680   0.5096   0.00901   0.00291  -0.0036   0.4965   1.0000
   3.760   0.5181   0.00910   0.00294  -0.0035   0.4908   1.0000
   3.840   0.5267   0.00914   0.00298  -0.0034   0.4842   1.0000
   3.920   0.5354   0.00919   0.00303  -0.0034   0.4775   1.0000
   4.000   0.5439   0.00926   0.00306  -0.0033   0.4707   1.0000
   4.080   0.5523   0.00935   0.00309  -0.0033   0.4643   1.0000
   4.160   0.5609   0.00940   0.00315  -0.0032   0.4577   1.0000
   4.240   0.5696   0.00946   0.00321  -0.0032   0.4511   1.0000
   4.320   0.5781   0.00953   0.00325  -0.0031   0.4443   1.0000
   4.400   0.5864   0.00964   0.00329  -0.0030   0.4372   1.0000
   4.480   0.5951   0.00969   0.00336  -0.0030   0.4308   1.0000
   4.560   0.6037   0.00976   0.00342  -0.0030   0.4239   1.0000
   4.640   0.6121   0.00984   0.00347  -0.0029   0.4171   1.0000
   4.720   0.6204   0.00997   0.00360  -0.0029   0.4099   1.0000
   4.800   0.6292   0.01002   0.00367  -0.0028   0.4032   1.0000
   4.880   0.6377   0.01009   0.00374  -0.0028   0.3970   1.0000
   4.960   0.6461   0.01019   0.00381  -0.0027   0.3905   1.0000

.OPERva   c>  
 XFOIL   c>  